data/smartds/Lines.dss
New Line.l(r:p1udt21lv-p1ulv22) Units=km Length=0.0112062 bus1=p1udt21lv.1.2 bus2=p1ulv22.1.2 switch=n enabled=y phases=2 Linecode=1P_UG_AL_1/0_Brenau_2

New Line.l(r:p1udt22lv-p1ulv10114) Units=km Length=0.0169579 bus1=p1udt22lv.1.2 bus2=p1ulv10114.1.2 switch=n enabled=y phases=2 Linecode=1P_UG_AL_1/0_Brenau_2

New Line.l(r:p1udm52-p1ulv23) Units=km Length=0.0154553 bus1=p1udm52.1.2 bus2=p1ulv23.1.2 switch=n enabled=y phases=2 Linecode=1P_UG_AL_2/0_Converse_2

New Line.l(r:p1udm52-p1ulv1288) Units=km Length=0.0156442 bus1=p1udm52.1.2 bus2=p1ulv1288.1.2 switch=n enabled=y phases=2 Linecode=1P_UG_AL_1/0_Brenau_2

New Line.l(r:p1udm52-p1udt22lv) Units=km Length=0.00992279 bus1=p1udt22lv.1.2 bus2=p1udm52.1.2 switch=n enabled=y phases=2 Linecode=1P_UG_AL_4/0_Sweetbriar_2

New Line.l(r:p1udm55-p1ulv10743) Units=km Length=0.0145158 bus1=p1udm55.1.2 bus2=p1ulv10743.1.2 switch=n enabled=y phases=2 Linecode=1P_UG_AL_1/0_Brenau_2

New Line.l(r:p1udm55-p1udt22lv) Units=km Length=0.02978 bus1=p1udt22lv.1.2 bus2=p1udm55.1.2 switch=n enabled=y phases=2 Linecode=1P_UG_AL_1/0_Brenau_2

New Line.l(r:p1udt23lv-p1ulv24) Units=km Length=0.0512888 bus1=p1udt23lv.1.2 bus2=p1ulv24.1.2 switch=n enabled=y phases=2 Linecode=1P_OH_AL_4/0_Zuzara_2

New Line.l(r:p1udt24lv-p1ulv25) Units=km Length=0.0209107 bus1=p1udt24lv.1.2 bus2=p1ulv25.1.2 switch=n enabled=y phases=2 Linecode=1P_UG_AL_4/0_Sweetbriar_2

New Line.l(r:p1udt24lv-p1ulv54991) Units=km Length=0.023159 bus1=p1udt24lv.1.2 bus2=p1ulv54991.1.2 switch=n enabled=y phases=2 Linecode=1P_UG_AL_1/0_Brenau_2

New Line.l(r:p1udm58-p1ulv35518) Units=km Length=0.016946 bus1=p1udm58.1.2 bus2=p1ulv35518.1.2 switch=n enabled=y phases=2 Linecode=1P_UG_AL_4/0_Sweetbriar_2

New Line.l(r:p1udm58-p1udt24lv) Units=km Length=0.0268638 bus1=p1udt24lv.1.2 bus2=p1udm58.1.2 switch=n enabled=y phases=2 Linecode=1P_UG_AL_4/0_Sweetbriar_2

New Line.l(r:p1udt25lv-p1ulv26) Units=km Length=0.0295273 bus1=p1udt25lv.1.2 bus2=p1ulv26.1.2 switch=n enabled=y phases=2 Linecode=1P_UG_AL_1/0_Brenau_2

New Line.l(r:p1udt25lv-p1ulv3249) Units=km Length=0.0242672 bus1=p1udt25lv.1.2 bus2=p1ulv3249.1.2 switch=n enabled=y phases=2 Linecode=1P_UG_AL_1/0_Brenau_2

New Line.l(r:p1udt25lv-p1ulv41161) Units=km Length=0.0228351 bus1=p1udt25lv.1.2 bus2=p1ulv41161.1.2 switch=n enabled=y phases=2 Linecode=1P_UG_AL_1/0_Brenau_2

New Line.l(r:p1udt25lv-p1ulv42420) Units=km Length=0.0228587 bus1=p1udt25lv.1.2 bus2=p1ulv42420.1.2 switch=n enabled=y phases=2 Linecode=1P_UG_AL_1/0_Brenau_2

New Line.l(r:p1udm62-p1ulv23429) Units=km Length=0.0210129 bus1=p1udm62.1.2 bus2=p1ulv23429.1.2 switch=n enabled=y phases=2 Linecode=1P_UG_AL_1/0_Brenau_2

New Line.l(r:p1udm62-p1udt25lv) Units=km Length=0.00930987 bus1=p1udt25lv.1.2 bus2=p1udm62.1.2 switch=n enabled=y phases=2 Linecode=1P_UG_AL_1/0_Brenau_2

New Line.l(r:p1udt26lv-p1ulv27) Units=km Length=0.0201839 bus1=p1udt26lv.1.2 bus2=p1ulv27.1.2 switch=n enabled=y phases=2 Linecode=1P_UG_AL_1/0_Brenau_2

New Line.l(r:p1udt26lv-p1ulv57418) Units=km Length=0.0132967 bus1=p1udt26lv.1.2 bus2=p1ulv57418.1.2 switch=n enabled=y phases=2 Linecode=1P_UG_AL_1/0_Brenau_2

New Line.l(r:p1udm66-p1ulv43026) Units=km Length=0.0181139 bus1=p1udm66.1.2 bus2=p1ulv43026.1.2 switch=n enabled=y phases=2 Linecode=1P_UG_AL_1/0_Brenau_2

New Line.l(r:p1udm66-p1udt26lv) Units=km Length=0.00929852 bus1=p1udt26lv.1.2 bus2=p1udm66.1.2 switch=n enabled=y phases=2 Linecode=1P_UG_AL_1/0_Brenau_2

New Line.l(r:p1udt27lv-p1ulv8253) Units=km Length=0.0145114 bus1=p1udt27lv.1.2 bus2=p1ulv8253.1.2 switch=n enabled=y phases=2 Linecode=1P_UG_AL_1/0_Brenau_2

New Line.l(r:p1udm68-p1ulv28) Units=km Length=0.0156869 bus1=p1udm68.1.2 bus2=p1ulv28.1.2 switch=n enabled=y phases=2 Linecode=1P_UG_AL_1/0_Brenau_2

New Line.l(r:p1udm68-p1udt27lv) Units=km Length=0.0193118 bus1=p1udt27lv.1.2 bus2=p1udm68.1.2 switch=n enabled=y phases=2 Linecode=1P_UG_AL_1/0_Brenau_2

New Line.l(r:p1udm69-p1ulv3883) Units=km Length=0.0170091 bus1=p1udm69.1.2 bus2=p1ulv3883.1.2 switch=n enabled=y phases=2 Linecode=1P_UG_AL_1/0_Brenau_2

New Line.l(r:p1udm69-p1udt27lv) Units=km Length=0.0094318 bus1=p1udt27lv.1.2 bus2=p1udm69.1.2 switch=n enabled=y phases=2 Linecode=1P_UG_AL_1/0_Brenau_2

New Line.l(r:p1udt28lv-p1ulv22147) Units=km Length=0.0127968 bus1=p1udt28lv.1.2 bus2=p1ulv22147.1.2 switch=n enabled=y phases=2 Linecode=1P_UG_AL_1/0_Brenau_2

New Line.l(r:p1udm71-p1ulv29) Units=km Length=0.0201969 bus1=p1udm71.1.2 bus2=p1ulv29.1.2 switch=n enabled=y phases=2 Linecode=1P_UG_AL_2/0_Converse_2

New Line.l(r:p1udm71-p1udt28lv) Units=km Length=0.019477700000000004 bus1=p1udt28lv.1.2 bus2=p1udm71.1.2 switch=n enabled=y phases=2 Linecode=1P_UG_AL_2/0_Converse_2

New Line.l(r:p1udm72-p1ulv13873) Units=km Length=0.0192936 bus1=p1udm72.1.2 bus2=p1ulv13873.1.2 switch=n enabled=y phases=2 Linecode=1P_UG_AL_1/0_Brenau_2

New Line.l(r:p1udm73-p1ulv20248) Units=km Length=0.0114043 bus1=p1udm73.1.2 bus2=p1ulv20248.1.2 switch=n enabled=y phases=2 Linecode=1P_UG_AL_1/0_Brenau_2

New Line.l(r:p1udm72-p1udm73) Units=km Length=0.00974101 bus1=p1udm72.1.2 bus2=p1udm73.1.2 switch=n enabled=y phases=2 Linecode=1P_UG_AL_1/0_Brenau_2

New Line.l(r:p1udm72-p1udt28lv) Units=km Length=0.0194642 bus1=p1udt28lv.1.2 bus2=p1udm72.1.2 switch=n enabled=y phases=2 Linecode=1P_UG_AL_4/0_Sweetbriar_2

New Line.l(r:p1udm75-p1ulv30) Units=km Length=0.020226000000000004 bus1=p1udm75.1.2 bus2=p1ulv30.1.2 switch=n enabled=y phases=2 Linecode=1P_UG_AL_1/0_Brenau_2

New Line.l(r:p1udm77-p1ulv3885) Units=km Length=0.0198629 bus1=p1udm77.1.2 bus2=p1ulv3885.1.2 switch=n enabled=y phases=2 Linecode=1P_UG_AL_1/0_Brenau_2

New Line.l(r:p1udm75-p1udm77) Units=km Length=0.00983163 bus1=p1udm75.1.2 bus2=p1udm77.1.2 switch=n enabled=y phases=2 Linecode=1P_UG_AL_1/0_Brenau_2

New Line.l(r:p1udm75-p1udt29lv) Units=km Length=0.00983163 bus1=p1udt29lv.1.2 bus2=p1udm75.1.2 switch=n enabled=y phases=2 Linecode=1P_UG_AL_4/0_Sweetbriar_2

New Line.l(r:p1udm78-p1ulv13243) Units=km Length=0.025770800000000003 bus1=p1udm78.1.2 bus2=p1ulv13243.1.2 switch=n enabled=y phases=2 Linecode=1P_UG_AL_1/0_Brenau_2

New Line.l(r:p1udm76-p1ulv3250) Units=km Length=0.0250975 bus1=p1udm76.1.2 bus2=p1ulv3250.1.2 switch=n enabled=y phases=2 Linecode=1P_UG_AL_1/0_Brenau_2

New Line.l(r:p1udm76-p1udm78) Units=km Length=0.00982286 bus1=p1udm78.1.2 bus2=p1udm76.1.2 switch=n enabled=y phases=2 Linecode=1P_UG_AL_1/0_Brenau_2

New Line.l(r:p1udm78-p1udt29lv) Units=km Length=0.00983163 bus1=p1udt29lv.1.2 bus2=p1udm78.1.2 switch=n enabled=y phases=2 Linecode=1P_UG_AL_4/0_Sweetbriar_2

New Line.l(r:p1udm79-p1ulv31) Units=km Length=0.0212449 bus1=p1udm79.1.2 bus2=p1ulv31.1.2 switch=n enabled=y phases=2 Linecode=1P_UG_AL_1/0_Brenau_2

New Line.l(r:p1udm79-p1ulv5083) Units=km Length=0.016152 bus1=p1udm79.1.2 bus2=p1ulv5083.1.2 switch=n enabled=y phases=2 Linecode=1P_UG_AL_1/0_Brenau_2

New Line.l(r:p1udm79-p1udt30lv) Units=km Length=0.00957627 bus1=p1udt30lv.1.2 bus2=p1udm79.1.2 switch=n enabled=y phases=2 Linecode=1P_UG_AL_4/0_Sweetbriar_2

New Line.l(r:p1udm81-p1ulv16362) Units=km Length=0.019515500000000005 bus1=p1udm81.1.2 bus2=p1ulv16362.1.2 switch=n enabled=y phases=2 Linecode=1P_UG_AL_1/0_Brenau_2

New Line.l(r:p1udm81-p1ulv21546) Units=km Length=0.0154494 bus1=p1udm81.1.2 bus2=p1ulv21546.1.2 switch=n enabled=y phases=2 Linecode=1P_UG_AL_1/0_Brenau_2

New Line.l(r:p1udm83-p1ulv29742) Units=km Length=0.0189447 bus1=p1udm83.1.2 bus2=p1ulv29742.1.2 switch=n enabled=y phases=2 Linecode=1P_UG_AL_1/0_Brenau_2

New Line.l(r:p1udm81-p1udm83) Units=km Length=0.00957627 bus1=p1udm81.1.2 bus2=p1udm83.1.2 switch=n enabled=y phases=2 Linecode=1P_UG_AL_1/0_Brenau_2

New Line.l(r:p1udm81-p1udt30lv) Units=km Length=0.00958514 bus1=p1udt30lv.1.2 bus2=p1udm81.1.2 switch=n enabled=y phases=2 Linecode=1P_UG_AL_4/0_Sweetbriar_2

New Line.l(r:p1udm84-p1ulv32) Units=km Length=0.0190899 bus1=p1udm84.1.2 bus2=p1ulv32.1.2 switch=n enabled=y phases=2 Linecode=1P_UG_AL_1/0_Brenau_2

New Line.l(r:p1udm85-p1ulv3884) Units=km Length=0.010544400000000002 bus1=p1udm85.1.2 bus2=p1ulv3884.1.2 switch=n enabled=y phases=2 Linecode=1P_UG_AL_1/0_Brenau_2

New Line.l(r:p1udm84-p1udm85) Units=km Length=0.00886255 bus1=p1udm84.1.2 bus2=p1udm85.1.2 switch=n enabled=y phases=2 Linecode=1P_UG_AL_1/0_Brenau_2

New Line.l(r:p1udm84-p1udt31lv) Units=km Length=0.00886005 bus1=p1udt31lv.1.2 bus2=p1udm84.1.2 switch=n enabled=y phases=2 Linecode=1P_UG_AL_4/0_Sweetbriar_2

New Line.l(r:p1udm86-p1ulv43035) Units=km Length=0.0167798 bus1=p1udm86.1.2 bus2=p1ulv43035.1.2 switch=n enabled=y phases=2 Linecode=1P_UG_AL_1/0_Brenau_2

New Line.l(r:p1udm87-p1ulv47480) Units=km Length=0.0157008 bus1=p1udm87.1.2 bus2=p1ulv47480.1.2 switch=n enabled=y phases=2 Linecode=1P_UG_AL_1/0_Brenau_2

New Line.l(r:p1udm87-p1ulv50553) Units=km Length=0.0134158 bus1=p1udm87.1.2 bus2=p1ulv50553.1.2 switch=n enabled=y phases=2 Linecode=1P_UG_AL_1/0_Brenau_2

New Line.l(r:p1udm86-p1udm87) Units=km Length=0.00859508 bus1=p1udm86.1.2 bus2=p1udm87.1.2 switch=n enabled=y phases=2 Linecode=1P_UG_AL_4/0_Sweetbriar_2

New Line.l(r:p1udm86-p1udt31lv) Units=km Length=0.00860456 bus1=p1udt31lv.1.2 bus2=p1udm86.1.2 switch=n enabled=y phases=2 Linecode=1P_UG_AL_4/0_Sweetbriar_2

New Line.l(r:p1udt658lv-p1ulv22770) Units=km Length=0.0273642 bus1=p1udt658lv.1.2 bus2=p1ulv22770.1.2 switch=n enabled=y phases=2 Linecode=1P_UG_AL_1/0_Brenau_2

New Line.l(r:p1udt658lv-p1ulv25319) Units=km Length=0.0197677 bus1=p1udt658lv.1.2 bus2=p1ulv25319.1.2 switch=n enabled=y phases=2 Linecode=1P_UG_AL_1/0_Brenau_2

New Line.l(r:p1udm2426-p1ulv667) Units=km Length=0.0125879 bus1=p1udm2426.1.2 bus2=p1ulv667.1.2 switch=n enabled=y phases=2 Linecode=1P_UG_AL_1/0_Brenau_2

New Line.l(r:p1udm2426-p1udt658lv) Units=km Length=0.00935554 bus1=p1udt658lv.1.2 bus2=p1udm2426.1.2 switch=n enabled=y phases=2 Linecode=1P_UG_AL_1/0_Brenau_2

New Line.l(r:p1udt659lv-p1ulv668) Units=km Length=0.016461800000000002 bus1=p1udt659lv.1.2 bus2=p1ulv668.1.2 switch=n enabled=y phases=2 Linecode=1P_UG_AL_1/0_Brenau_2

New Line.l(r:p1udm2430-p1ulv669) Units=km Length=0.0124647 bus1=p1udm2430.1.2 bus2=p1ulv669.1.2 switch=n enabled=y phases=2 Linecode=1P_UG_AL_1/0_Brenau_2

New Line.l(r:p1udm2430-p1ulv25958) Units=km Length=0.0164512 bus1=p1udm2430.1.2 bus2=p1ulv25958.1.2 switch=n enabled=y phases=2 Linecode=1P_UG_AL_1/0_Brenau_2

New Line.l(r:p1udm2430-p1udt659lv) Units=km Length=0.0196139 bus1=p1udt659lv.1.2 bus2=p1udm2430.1.2 switch=n enabled=y phases=2 Linecode=1P_UG_AL_4/0_Sweetbriar_2

New Line.l(r:p1udm2431-p1ulv8881) Units=km Length=0.0120607 bus1=p1udm2431.1.2 bus2=p1ulv8881.1.2 switch=n enabled=y phases=2 Linecode=1P_UG_AL_1/0_Brenau_2

New Line.l(r:p1udm2433-p1ulv40551) Units=km Length=0.0165302 bus1=p1udm2433.1.2 bus2=p1ulv40551.1.2 switch=n enabled=y phases=2 Linecode=1P_UG_AL_1/0_Brenau_2

New Line.l(r:p1udm2431-p1udm2433) Units=km Length=0.0193288 bus1=p1udm2431.1.2 bus2=p1udm2433.1.2 switch=n enabled=y phases=2 Linecode=1P_UG_AL_1/0_Brenau_2

New Line.l(r:p1udm2431-p1udt659lv) Units=km Length=0.00967122 bus1=p1udt659lv.1.2 bus2=p1udm2431.1.2 switch=n enabled=y phases=2 Linecode=1P_UG_AL_4/0_Sweetbriar_2

New Line.l(r:p1udt660lv-p1ulv670) Units=km Length=0.0118557 bus1=p1udt660lv.1.2 bus2=p1ulv670.1.2 switch=n enabled=y phases=2 Linecode=1P_UG_AL_1/0_Brenau_2

New Line.l(r:p1udm2436-p1ulv27259) Units=km Length=0.0141605 bus1=p1udm2436.1.2 bus2=p1ulv27259.1.2 switch=n enabled=y phases=2 Linecode=1P_UG_AL_1/0_Brenau_2

New Line.l(r:p1udm2436-p1ulv49918) Units=km Length=0.015225000000000002 bus1=p1udm2436.1.2 bus2=p1ulv49918.1.2 switch=n enabled=y phases=2 Linecode=1P_UG_AL_1/0_Brenau_2

New Line.l(r:p1udm2436-p1udt660lv) Units=km Length=0.0195094 bus1=p1udt660lv.1.2 bus2=p1udm2436.1.2 switch=n enabled=y phases=2 Linecode=1P_UG_AL_4/0_Sweetbriar_2

New Line.l(r:p1udm2438-p1ulv55587) Units=km Length=0.0182754 bus1=p1udm2438.1.2 bus2=p1ulv55587.1.2 switch=n enabled=y phases=2 Linecode=1P_UG_AL_1/0_Brenau_2

New Line.l(r:p1udm2435-p1ulv22774) Units=km Length=0.015469 bus1=p1udm2435.1.2 bus2=p1ulv22774.1.2 switch=n enabled=y phases=2 Linecode=1P_UG_AL_1/0_Brenau_2

New Line.l(r:p1udm2435-p1udm2438) Units=km Length=0.0887408 bus1=p1udm2438.1.2 bus2=p1udm2435.1.2 switch=n enabled=y phases=2 Linecode=1P_UG_AL_1/0_Brenau_2

New Line.l(r:p1udm2438-p1udt660lv) Units=km Length=0.00975236 bus1=p1udt660lv.1.2 bus2=p1udm2438.1.2 switch=n enabled=y phases=2 Linecode=1P_UG_AL_4/0_Sweetbriar_2

New Line.l(r:p1udt661lv-p1ulv31001) Units=km Length=0.0105844 bus1=p1udt661lv.1.2 bus2=p1ulv31001.1.2 switch=n enabled=y phases=2 Linecode=1P_UG_AL_1/0_Brenau_2

New Line.l(r:p1udm2439-p1ulv671) Units=km Length=0.016756400000000005 bus1=p1udm2439.1.2 bus2=p1ulv671.1.2 switch=n enabled=y phases=2 Linecode=1P_UG_AL_1/0_Brenau_2

New Line.l(r:p1udm2440-p1ulv10105) Units=km Length=0.0158069 bus1=p1udm2440.1.2 bus2=p1ulv10105.1.2 switch=n enabled=y phases=2 Linecode=1P_UG_AL_1/0_Brenau_2

New Line.l(r:p1udm2439-p1udm2440) Units=km Length=0.00936558 bus1=p1udm2439.1.2 bus2=p1udm2440.1.2 switch=n enabled=y phases=2 Linecode=1P_UG_AL_1/0_Brenau_2

New Line.l(r:p1udm2439-p1udt661lv) Units=km Length=0.00564448 bus1=p1udt661lv.1.2 bus2=p1udm2439.1.2 switch=n enabled=y phases=2 Linecode=1P_UG_AL_4/0_Sweetbriar_2

New Line.l(r:p1udm2442-p1ulv17012) Units=km Length=0.0162585 bus1=p1udm2442.1.2 bus2=p1ulv17012.1.2 switch=n enabled=y phases=2 Linecode=1P_UG_AL_1/0_Brenau_2

New Line.l(r:p1udm2441-p1ulv12612) Units=km Length=0.0142474 bus1=p1udm2441.1.2 bus2=p1ulv12612.1.2 switch=n enabled=y phases=2 Linecode=1P_UG_AL_1/0_Brenau_2

New Line.l(r:p1udm2441-p1udm2442) Units=km Length=0.0978913 bus1=p1udm2442.1.2 bus2=p1udm2441.1.2 switch=n enabled=y phases=2 Linecode=1P_UG_AL_1/0_Brenau_2

New Line.l(r:p1udm2442-p1udt661lv) Units=km Length=0.0056349 bus1=p1udt661lv.1.2 bus2=p1udm2442.1.2 switch=n enabled=y phases=2 Linecode=1P_UG_AL_4/0_Sweetbriar_2

New Line.l(r:p1udt662lv-p1ulv22776) Units=km Length=0.014924300000000001 bus1=p1udt662lv.1.2 bus2=p1ulv22776.1.2 switch=n enabled=y phases=2 Linecode=1P_UG_AL_1/0_Brenau_2

New Line.l(r:p1udm2445-p1ulv21533) Units=km Length=0.0219172 bus1=p1udm2445.1.2 bus2=p1ulv21533.1.2 switch=n enabled=y phases=2 Linecode=1P_UG_AL_1/0_Brenau_2

New Line.l(r:p1udm2444-p1ulv672) Units=km Length=0.023074 bus1=p1udm2444.1.2 bus2=p1ulv672.1.2 switch=n enabled=y phases=2 Linecode=1P_UG_AL_1/0_Brenau_2

New Line.l(r:p1udm2444-p1udm2445) Units=km Length=0.00969538 bus1=p1udm2445.1.2 bus2=p1udm2444.1.2 switch=n enabled=y phases=2 Linecode=1P_UG_AL_1/0_Brenau_2

New Line.l(r:p1udm2445-p1udt662lv) Units=km Length=0.00969054 bus1=p1udt662lv.1.2 bus2=p1udm2445.1.2 switch=n enabled=y phases=2 Linecode=1P_UG_AL_4/0_Sweetbriar_2

New Line.l(r:p1udm2447-p1ulv64829) Units=km Length=0.0309109 bus1=p1udm2447.1.2 bus2=p1ulv64829.1.2 switch=n enabled=y phases=2 Linecode=1P_UG_AL_1/0_Brenau_2

New Line.l(r:p1udm2447-p1udt662lv) Units=km Length=0.0484488 bus1=p1udt662lv.1.2 bus2=p1udm2447.1.2 switch=n enabled=y phases=2 Linecode=1P_UG_AL_1/0_Brenau_2

New Line.l(r:p1udt672lv-p1ulv682) Units=km Length=0.0303314 bus1=p1udt672lv.1.2 bus2=p1ulv682.1.2 switch=n enabled=y phases=2 Linecode=1P_OH_AL_4/0_Zuzara_2

New Line.l(r:p1udt673lv-p1ulv683) Units=km Length=0.020753 bus1=p1udt673lv.1.2 bus2=p1ulv683.1.2 switch=n enabled=y phases=2 Linecode=1P_UG_AL_1/0_Brenau_2

New Line.l(r:p1udt1241lv-p1ulv13856) Units=km Length=0.0137187 bus1=p1udt1241lv.1.2 bus2=p1ulv13856.1.2 switch=n enabled=y phases=2 Linecode=1P_UG_AL_1/0_Brenau_2

New Line.l(r:p1udt1241lv-p1ulv62941) Units=km Length=0.0226088 bus1=p1udt1241lv.1.2 bus2=p1ulv62941.1.2 switch=n enabled=y phases=2 Linecode=1P_UG_AL_1/0_Brenau_2

New Line.l(r:p1udm4571-p1ulv1276) Units=km Length=0.013005 bus1=p1udm4571.1.2 bus2=p1ulv1276.1.2 switch=n enabled=y phases=2 Linecode=1P_UG_AL_1/0_Brenau_2

New Line.l(r:p1udm4571-p1ulv24685) Units=km Length=0.0209712 bus1=p1udm4571.1.2 bus2=p1ulv24685.1.2 switch=n enabled=y phases=2 Linecode=1P_UG_AL_1/0_Brenau_2

New Line.l(r:p1udm4571-p1udt1241lv) Units=km Length=0.00983013 bus1=p1udt1241lv.1.2 bus2=p1udm4571.1.2 switch=n enabled=y phases=2 Linecode=1P_UG_AL_4/0_Sweetbriar_2

New Line.l(r:p1udm4580-p1ulv1278) Units=km Length=0.015435300000000002 bus1=p1udm4580.1.2 bus2=p1ulv1278.1.2 switch=n enabled=y phases=2 Linecode=1P_UG_AL_1/0_Brenau_2

New Line.l(r:p1udm4580-p1udt1243lv) Units=km Length=0.0457142 bus1=p1udt1243lv.1.2 bus2=p1udm4580.1.2 switch=n enabled=y phases=2 Linecode=1P_UG_AL_1/0_Brenau_2

New Line.l(r:p1udm4583-p1ulv64214) Units=km Length=0.0148171 bus1=p1udm4583.1.2 bus2=p1ulv64214.1.2 switch=n enabled=y phases=2 Linecode=1P_UG_AL_1/0_Brenau_2

New Line.l(r:p1udm4582-p1ulv53076) Units=km Length=0.0143153 bus1=p1udm4582.1.2 bus2=p1ulv53076.1.2 switch=n enabled=y phases=2 Linecode=1P_UG_AL_1/0_Brenau_2

New Line.l(r:p1udm4581-p1ulv35504) Units=km Length=0.0176356 bus1=p1udm4581.1.2 bus2=p1ulv35504.1.2 switch=n enabled=y phases=2 Linecode=1P_UG_AL_1/0_Brenau_2

New Line.l(r:p1udm4581-p1udm4582) Units=km Length=0.00898466 bus1=p1udm4582.1.2 bus2=p1udm4581.1.2 switch=n enabled=y phases=2 Linecode=1P_UG_AL_1/0_Brenau_2

New Line.l(r:p1udm4582-p1udm4583) Units=km Length=0.0152781 bus1=p1udm4583.1.2 bus2=p1udm4582.1.2 switch=n enabled=y phases=2 Linecode=1P_UG_AL_4/0_Sweetbriar_2

New Line.l(r:p1udm4583-p1udt1243lv) Units=km Length=0.0076320400000000005 bus1=p1udt1243lv.1.2 bus2=p1udm4583.1.2 switch=n enabled=y phases=2 Linecode=1P_UG_AL_4/0_Sweetbriar_2

New Line.l(r:p1udt1251lv-p1ulv1286) Units=km Length=0.008170020000000002 bus1=p1udt1251lv.1.2 bus2=p1ulv1286.1.2 switch=n enabled=y phases=2 Linecode=1P_UG_AL_1/0_Brenau_2

New Line.l(r:p1udt1251lv-p1ulv20892) Units=km Length=0.0173413 bus1=p1udt1251lv.1.2 bus2=p1ulv20892.1.2 switch=n enabled=y phases=2 Linecode=1P_UG_AL_1/0_Brenau_2

New Line.l(r:p1udt1251lv-p1ulv59802) Units=km Length=0.0272772 bus1=p1udt1251lv.1.2 bus2=p1ulv59802.1.2 switch=n enabled=y phases=2 Linecode=1P_UG_AL_1/0_Brenau_2

New Line.l(r:p1udt1252lv-p1ulv44326) Units=km Length=0.0129458 bus1=p1udt1252lv.1.2 bus2=p1ulv44326.1.2 switch=n enabled=y phases=2 Linecode=1P_UG_AL_1/0_Brenau_2

New Line.l(r:p1udm4609-p1ulv1287) Units=km Length=0.017941 bus1=p1udm4609.1.2 bus2=p1ulv1287.1.2 switch=n enabled=y phases=2 Linecode=1P_UG_AL_1/0_Brenau_2

New Line.l(r:p1udm4609-p1udt1252lv) Units=km Length=0.00988818 bus1=p1udt1252lv.1.2 bus2=p1udm4609.1.2 switch=n enabled=y phases=2 Linecode=1P_UG_AL_1/0_Brenau_2

New Line.l(r:p1udm4610-p1ulv11365) Units=km Length=0.0138804 bus1=p1udm4610.1.2 bus2=p1ulv11365.1.2 switch=n enabled=y phases=2 Linecode=1P_UG_AL_1/0_Brenau_2

New Line.l(r:p1udm4610-p1udt1252lv) Units=km Length=0.009901640000000001 bus1=p1udt1252lv.1.2 bus2=p1udm4610.1.2 switch=n enabled=y phases=2 Linecode=1P_UG_AL_1/0_Brenau_2

New Line.l(r:p1udt1254lv-p1ulv1290) Units=km Length=0.0288999 bus1=p1udt1254lv.1.2 bus2=p1ulv1290.1.2 switch=n enabled=y phases=2 Linecode=1P_UG_AL_1/0_Brenau_2

New Line.l(r:p1udt1254lv-p1ulv25335) Units=km Length=0.0240988 bus1=p1udt1254lv.1.2 bus2=p1ulv25335.1.2 switch=n enabled=y phases=2 Linecode=1P_UG_AL_1/0_Brenau_2

New Line.l(r:p1udt1254lv-p1ulv50549) Units=km Length=0.025406 bus1=p1udt1254lv.1.2 bus2=p1ulv50549.1.2 switch=n enabled=y phases=2 Linecode=1P_UG_AL_1/0_Brenau_2

New Line.l(r:p1udm4617-p1ulv61039) Units=km Length=0.021530200000000003 bus1=p1udm4617.1.2 bus2=p1ulv61039.1.2 switch=n enabled=y phases=2 Linecode=1P_UG_AL_1/0_Brenau_2

New Line.l(r:p1udm4615-p1ulv35520) Units=km Length=0.0133174 bus1=p1udm4615.1.2 bus2=p1ulv35520.1.2 switch=n enabled=y phases=2 Linecode=1P_UG_AL_1/0_Brenau_2

New Line.l(r:p1udm4615-p1udm4617) Units=km Length=0.032222 bus1=p1udm4617.1.2 bus2=p1udm4615.1.2 switch=n enabled=y phases=2 Linecode=1P_UG_AL_1/0_Brenau_2

New Line.l(r:p1udm4617-p1udt1254lv) Units=km Length=0.00947506 bus1=p1udt1254lv.1.2 bus2=p1udm4617.1.2 switch=n enabled=y phases=2 Linecode=1P_UG_AL_4/0_Sweetbriar_2

New Line.l(r:p1udt1255lv-p1ulv1291) Units=km Length=0.0316609 bus1=p1udt1255lv.1.2 bus2=p1ulv1291.1.2 switch=n enabled=y phases=2 Linecode=1P_UG_AL_1/0_Brenau_2

New Line.l(r:p1udt1255lv-p1ulv31016) Units=km Length=0.0303434 bus1=p1udt1255lv.1.2 bus2=p1ulv31016.1.2 switch=n enabled=y phases=2 Linecode=1P_UG_AL_1/0_Brenau_2

New Line.l(r:p1udt1255lv-p1ulv38662) Units=km Length=0.0228475 bus1=p1udt1255lv.1.2 bus2=p1ulv38662.1.2 switch=n enabled=y phases=2 Linecode=1P_UG_AL_1/0_Brenau_2

New Line.l(r:p1udt1255lv-p1ulv53745) Units=km Length=0.0286851 bus1=p1udt1255lv.1.2 bus2=p1ulv53745.1.2 switch=n enabled=y phases=2 Linecode=1P_UG_AL_1/0_Brenau_2

New Line.l(r:p1udm4619-p1ulv24103) Units=km Length=0.0182322 bus1=p1udm4619.1.2 bus2=p1ulv24103.1.2 switch=n enabled=y phases=2 Linecode=1P_UG_AL_1/0_Brenau_2

New Line.l(r:p1udm4619-p1udt1255lv) Units=km Length=0.05365190000000001 bus1=p1udt1255lv.1.2 bus2=p1udm4619.1.2 switch=n enabled=y phases=2 Linecode=1P_UG_AL_1/0_Brenau_2

New Line.l(r:p1udm4623-p1ulv1292) Units=km Length=0.013081500000000001 bus1=p1udm4623.1.2 bus2=p1ulv1292.1.2 switch=n enabled=y phases=2 Linecode=1P_OH_AL_2/0_Rucina_2

New Line.l(r:p1udm4623-p1ulv5745) Units=km Length=0.0168813 bus1=p1udm4623.1.2 bus2=p1ulv5745.1.2 switch=n enabled=y phases=2 Linecode=1P_OH_AL_2/0_Rucina_2

New Line.l(r:p1udm4623-p1udt1256lv) Units=km Length=0.0560102 bus1=p1udt1256lv.1.2 bus2=p1udm4623.1.2 switch=n enabled=y phases=2 Linecode=1P_OH_AL_4/0_Zuzara_2

New Line.l(r:p1udm4625-p1ulv6394) Units=km Length=0.015414400000000002 bus1=p1udm4625.1.2 bus2=p1ulv6394.1.2 switch=n enabled=y phases=2 Linecode=1P_UG_AL_1/0_Brenau_2

New Line.l(r:p1udm4626-p1ulv39297) Units=km Length=0.0149846 bus1=p1udm4626.1.2 bus2=p1ulv39297.1.2 switch=n enabled=y phases=2 Linecode=1P_UG_AL_1/0_Brenau_2

New Line.l(r:p1udm4627-p1ulv55601) Units=km Length=0.0149965 bus1=p1udm4627.1.2 bus2=p1ulv55601.1.2 switch=n enabled=y phases=2 Linecode=1P_UG_AL_1/0_Brenau_2

New Line.l(r:p1udm4626-p1udm4627) Units=km Length=0.00607806 bus1=p1udm4626.1.2 bus2=p1udm4627.1.2 switch=n enabled=y phases=2 Linecode=1P_UG_AL_1/0_Brenau_2

New Line.l(r:p1udm4625-p1udm4626) Units=km Length=0.0188804 bus1=p1udm4625.1.2 bus2=p1udm4626.1.2 switch=n enabled=y phases=2 Linecode=1P_UG_AL_4/0_Sweetbriar_2

New Line.l(r:p1udm4625-p1udt1256lv) Units=km Length=0.0143881 bus1=p1udt1256lv.1.2 bus2=p1udm4625.1.2 switch=n enabled=y phases=2 Linecode=1P_UG_AL_4/0_Sweetbriar_2

New Line.l(r:p1udm4628-p1ulv64227) Units=km Length=0.0150809 bus1=p1udm4628.1.2 bus2=p1ulv64227.1.2 switch=n enabled=y phases=2 Linecode=1P_UG_AL_1/0_Brenau_2

New Line.l(r:p1udm4628-p1udt1256lv) Units=km Length=0.0654023 bus1=p1udt1256lv.1.2 bus2=p1udm4628.1.2 switch=n enabled=y phases=2 Linecode=1P_UG_AL_1/0_Brenau_2

New Line.l(r:p1udt1257lv-p1ulv18302) Units=km Length=0.0136203 bus1=p1udt1257lv.1.2 bus2=p1ulv18302.1.2 switch=n enabled=y phases=2 Linecode=1P_UG_AL_1/0_Brenau_2

New Line.l(r:p1udm4629-p1ulv1293) Units=km Length=0.0141728 bus1=p1udm4629.1.2 bus2=p1ulv1293.1.2 switch=n enabled=y phases=2 Linecode=1P_UG_AL_1/0_Brenau_2

New Line.l(r:p1udm4630-p1ulv8892) Units=km Length=0.0147098 bus1=p1udm4630.1.2 bus2=p1ulv8892.1.2 switch=n enabled=y phases=2 Linecode=1P_UG_AL_1/0_Brenau_2

New Line.l(r:p1udm4629-p1udm4630) Units=km Length=0.0274504 bus1=p1udm4629.1.2 bus2=p1udm4630.1.2 switch=n enabled=y phases=2 Linecode=1P_UG_AL_1/0_Brenau_2

New Line.l(r:p1udm4629-p1udt1257lv) Units=km Length=0.00915014 bus1=p1udt1257lv.1.2 bus2=p1udm4629.1.2 switch=n enabled=y phases=2 Linecode=1P_UG_AL_4/0_Sweetbriar_2

New Line.l(r:p1udm4631-p1ulv14462) Units=km Length=0.0296815 bus1=p1udm4631.1.2 bus2=p1ulv14462.1.2 switch=n enabled=y phases=2 Linecode=1P_UG_AL_1/0_Brenau_2

New Line.l(r:p1udm4631-p1udt1257lv) Units=km Length=0.055272 bus1=p1udt1257lv.1.2 bus2=p1udm4631.1.2 switch=n enabled=y phases=2 Linecode=1P_UG_AL_1/0_Brenau_2

New Line.l(r:p1udt1263lv-p1ulv1299) Units=km Length=0.0119149 bus1=p1udt1263lv.1.2 bus2=p1ulv1299.1.2 switch=n enabled=y phases=2 Linecode=1P_UG_AL_1/0_Brenau_2

New Line.l(r:p1udm4651-p1ulv14474) Units=km Length=0.00957079 bus1=p1udm4651.1.2 bus2=p1ulv14474.1.2 switch=n enabled=y phases=2 Linecode=1P_UG_AL_1/0_Brenau_2

New Line.l(r:p1udm4651-p1udt1263lv) Units=km Length=0.0177783 bus1=p1udt1263lv.1.2 bus2=p1udm4651.1.2 switch=n enabled=y phases=2 Linecode=1P_UG_AL_1/0_Brenau_2

New Line.l(r:p1udm4652-p1ulv58005) Units=km Length=0.0129061 bus1=p1udm4652.1.2 bus2=p1ulv58005.1.2 switch=n enabled=y phases=2 Linecode=1P_OH_AL_2/0_Rucina_2

New Line.l(r:p1udm4652-p1udt1263lv) Units=km Length=0.01753 bus1=p1udt1263lv.1.2 bus2=p1udm4652.1.2 switch=n enabled=y phases=2 Linecode=1P_OH_AL_2/0_Rucina_2

New Line.l(r:p1udm6731-p1ulv1946) Units=km Length=0.0141481 bus1=p1udm6731.1.2 bus2=p1ulv1946.1.2 switch=n enabled=y phases=2 Linecode=1P_UG_AL_1/0_Brenau_2

New Line.l(r:p1udm6731-p1udt1855lv) Units=km Length=0.0186406 bus1=p1udt1855lv.1.2 bus2=p1udm6731.1.2 switch=n enabled=y phases=2 Linecode=1P_UG_AL_1/0_Brenau_2

New Line.l(r:p1udm6733-p1ulv38644) Units=km Length=0.0150965 bus1=p1udm6733.1.2 bus2=p1ulv38644.1.2 switch=n enabled=y phases=2 Linecode=1P_UG_AL_1/0_Brenau_2

New Line.l(r:p1udm6732-p1ulv6376) Units=km Length=0.0144266 bus1=p1udm6732.1.2 bus2=p1ulv6376.1.2 switch=n enabled=y phases=2 Linecode=1P_UG_AL_1/0_Brenau_2

New Line.l(r:p1udm6732-p1udm6733) Units=km Length=0.00933872 bus1=p1udm6733.1.2 bus2=p1udm6732.1.2 switch=n enabled=y phases=2 Linecode=1P_UG_AL_1/0_Brenau_2

New Line.l(r:p1udm6733-p1udt1855lv) Units=km Length=0.0186818 bus1=p1udt1855lv.1.2 bus2=p1udm6733.1.2 switch=n enabled=y phases=2 Linecode=1P_UG_AL_4/0_Sweetbriar_2

New Line.l(r:p1udm6734-p1ulv56781) Units=km Length=0.0162599 bus1=p1udm6734.1.2 bus2=p1ulv56781.1.2 switch=n enabled=y phases=2 Linecode=1P_UG_AL_1/0_Brenau_2

New Line.l(r:p1udm6735-p1ulv57402) Units=km Length=0.016253 bus1=p1udm6735.1.2 bus2=p1ulv57402.1.2 switch=n enabled=y phases=2 Linecode=1P_UG_AL_1/0_Brenau_2

New Line.l(r:p1udm6734-p1udm6735) Units=km Length=0.0191252 bus1=p1udm6734.1.2 bus2=p1udm6735.1.2 switch=n enabled=y phases=2 Linecode=1P_UG_AL_1/0_Brenau_2

New Line.l(r:p1udm6734-p1udt1855lv) Units=km Length=0.009571650000000001 bus1=p1udt1855lv.1.2 bus2=p1udm6734.1.2 switch=n enabled=y phases=2 Linecode=1P_UG_AL_4/0_Sweetbriar_2

New Line.l(r:p1udt1857lv-p1ulv11359) Units=km Length=0.0363725 bus1=p1udt1857lv.1.2 bus2=p1ulv11359.1.2 switch=n enabled=y phases=2 Linecode=1P_UG_AL_1/0_Brenau_2

New Line.l(r:p1udt1857lv-p1ulv25960) Units=km Length=0.0232983 bus1=p1udt1857lv.1.2 bus2=p1ulv25960.1.2 switch=n enabled=y phases=2 Linecode=1P_UG_AL_1/0_Brenau_2

New Line.l(r:p1udt1857lv-p1ulv25961) Units=km Length=0.0255506 bus1=p1udt1857lv.1.2 bus2=p1ulv25961.1.2 switch=n enabled=y phases=2 Linecode=1P_UG_AL_2/0_Converse_2

New Line.l(r:p1udm6745-p1ulv61672) Units=km Length=0.0398195 bus1=p1udm6745.1.2 bus2=p1ulv61672.1.2 switch=n enabled=y phases=2 Linecode=1P_UG_AL_1/0_Brenau_2

New Line.l(r:p1udm6741-p1ulv1948) Units=km Length=0.0222115 bus1=p1udm6741.1.2 bus2=p1ulv1948.1.2 switch=n enabled=y phases=2 Linecode=1P_UG_AL_1/0_Brenau_2

New Line.l(r:p1udm6741-p1udm6745) Units=km Length=0.009762160000000002 bus1=p1udm6745.1.2 bus2=p1udm6741.1.2 switch=n enabled=y phases=2 Linecode=1P_UG_AL_1/0_Brenau_2

New Line.l(r:p1udm6745-p1udt1857lv) Units=km Length=0.00975969 bus1=p1udt1857lv.1.2 bus2=p1udm6745.1.2 switch=n enabled=y phases=2 Linecode=1P_UG_AL_4/0_Sweetbriar_2

New Line.l(r:p1udt1859lv-p1ulv1950) Units=km Length=0.0315715 bus1=p1udt1859lv.1.2 bus2=p1ulv1950.1.2 switch=n enabled=y phases=2 Linecode=1P_UG_AL_1/0_Brenau_2

New Line.l(r:p1udt1859lv-p1ulv61675) Units=km Length=0.0287429 bus1=p1udt1859lv.1.2 bus2=p1ulv61675.1.2 switch=n enabled=y phases=2 Linecode=1P_UG_AL_1/0_Brenau_2

New Line.l(r:p1udt1859lv-p1ulv64215) Units=km Length=0.029752000000000004 bus1=p1udt1859lv.1.2 bus2=p1ulv64215.1.2 switch=n enabled=y phases=2 Linecode=1P_UG_AL_1/0_Brenau_2

New Line.l(r:p1udm6749-p1ulv12614) Units=km Length=0.0287406 bus1=p1udm6749.1.2 bus2=p1ulv12614.1.2 switch=n enabled=y phases=2 Linecode=1P_UG_AL_1/0_Brenau_2

New Line.l(r:p1udm6748-p1ulv3234) Units=km Length=0.0226772 bus1=p1udm6748.1.2 bus2=p1ulv3234.1.2 switch=n enabled=y phases=2 Linecode=1P_UG_AL_2/0_Converse_2

New Line.l(r:p1udm6748-p1udm6749) Units=km Length=0.0157097 bus1=p1udm6749.1.2 bus2=p1udm6748.1.2 switch=n enabled=y phases=2 Linecode=1P_UG_AL_2/0_Converse_2

New Line.l(r:p1udm6749-p1udt1859lv) Units=km Length=0.0156997 bus1=p1udt1859lv.1.2 bus2=p1udm6749.1.2 switch=n enabled=y phases=2 Linecode=1P_UG_AL_4/0_Sweetbriar_2

New Line.l(r:p1udt1860lv-p1ulv1951) Units=km Length=0.0170167 bus1=p1udt1860lv.1.2 bus2=p1ulv1951.1.2 switch=n enabled=y phases=2 Linecode=1P_UG_AL_1/0_Brenau_2

New Line.l(r:p1udt1860lv-p1ulv52464) Units=km Length=0.011790000000000002 bus1=p1udt1860lv.1.2 bus2=p1ulv52464.1.2 switch=n enabled=y phases=2 Linecode=1P_UG_AL_1/0_Brenau_2

New Line.l(r:p1udm6753-p1ulv3232) Units=km Length=0.0197964 bus1=p1udm6753.1.2 bus2=p1ulv3232.1.2 switch=n enabled=y phases=2 Linecode=1P_UG_AL_1/0_Brenau_2

New Line.l(r:p1udm6753-p1udt1860lv) Units=km Length=0.00763551 bus1=p1udt1860lv.1.2 bus2=p1udm6753.1.2 switch=n enabled=y phases=2 Linecode=1P_UG_AL_1/0_Brenau_2

New Line.l(r:p1udt1863lv-p1ulv1955) Units=km Length=0.0269045 bus1=p1udt1863lv.1.2 bus2=p1ulv1955.1.2 switch=n enabled=y phases=2 Linecode=1P_OH_AL_2/0_Rucina_2

New Line.l(r:p1udm6762-p1ulv21543) Units=km Length=0.0282858 bus1=p1udm6762.1.2 bus2=p1ulv21543.1.2 switch=n enabled=y phases=2 Linecode=1P_OH_AL_4/0_Zuzara_2

New Line.l(r:p1udm6762-p1ulv40556) Units=km Length=0.02194 bus1=p1udm6762.1.2 bus2=p1ulv40556.1.2 switch=n enabled=y phases=2 Linecode=1P_OH_AL_2/0_Rucina_2

New Line.l(r:p1udm6762-p1udt1863lv) Units=km Length=0.0151356 bus1=p1udt1863lv.1.2 bus2=p1udm6762.1.2 switch=n enabled=y phases=2 Linecode=1P_OH_AL_2/0_Rucina_2

New Line.l(r:p1udt1864lv-p1ulv1956) Units=km Length=0.0184773 bus1=p1udt1864lv.1.2 bus2=p1ulv1956.1.2 switch=n enabled=y phases=2 Linecode=1P_UG_AL_1/0_Brenau_2

New Line.l(r:p1udm6765-p1ulv8250) Units=km Length=0.0152073 bus1=p1udm6765.1.2 bus2=p1ulv8250.1.2 switch=n enabled=y phases=2 Linecode=1P_UG_AL_1/0_Brenau_2

New Line.l(r:p1udm6765-p1udt1864lv) Units=km Length=0.00924399 bus1=p1udt1864lv.1.2 bus2=p1udm6765.1.2 switch=n enabled=y phases=2 Linecode=1P_UG_AL_1/0_Brenau_2

New Line.l(r:p1udm6766-p1ulv9515) Units=km Length=0.0156226 bus1=p1udm6766.1.2 bus2=p1ulv9515.1.2 switch=n enabled=y phases=2 Linecode=1P_UG_AL_1/0_Brenau_2

New Line.l(r:p1udm6766-p1ulv45617) Units=km Length=0.0171036 bus1=p1udm6766.1.2 bus2=p1ulv45617.1.2 switch=n enabled=y phases=2 Linecode=1P_UG_AL_1/0_Brenau_2

New Line.l(r:p1udm6766-p1udt1864lv) Units=km Length=0.00925292 bus1=p1udt1864lv.1.2 bus2=p1udm6766.1.2 switch=n enabled=y phases=2 Linecode=1P_UG_AL_4/0_Sweetbriar_2

New Line.l(r:p1udt1865lv-p1ulv54993) Units=km Length=0.0133882 bus1=p1udt1865lv.1.2 bus2=p1ulv54993.1.2 switch=n enabled=y phases=2 Linecode=1P_UG_AL_1/0_Brenau_2

New Line.l(r:p1udm6768-p1ulv1957) Units=km Length=0.0129424 bus1=p1udm6768.1.2 bus2=p1ulv1957.1.2 switch=n enabled=y phases=2 Linecode=1P_UG_AL_1/0_Brenau_2

New Line.l(r:p1udm6770-p1ulv7652) Units=km Length=0.0171727 bus1=p1udm6770.1.2 bus2=p1ulv7652.1.2 switch=n enabled=y phases=2 Linecode=1P_UG_AL_1/0_Brenau_2

New Line.l(r:p1udm6768-p1udm6770) Units=km Length=0.0588614 bus1=p1udm6768.1.2 bus2=p1udm6770.1.2 switch=n enabled=y phases=2 Linecode=1P_UG_AL_1/0_Brenau_2

New Line.l(r:p1udm6768-p1udt1865lv) Units=km Length=0.00995191 bus1=p1udt1865lv.1.2 bus2=p1udm6768.1.2 switch=n enabled=y phases=2 Linecode=1P_UG_AL_4/0_Sweetbriar_2

New Line.l(r:p1udm6771-p1ulv53746) Units=km Length=0.013748800000000002 bus1=p1udm6771.1.2 bus2=p1ulv53746.1.2 switch=n enabled=y phases=2 Linecode=1P_UG_AL_1/0_Brenau_2

New Line.l(r:p1udm6769-p1ulv3881) Units=km Length=0.0220352 bus1=p1udm6769.1.2 bus2=p1ulv3881.1.2 switch=n enabled=y phases=2 Linecode=1P_UG_AL_1/0_Brenau_2

New Line.l(r:p1udm6769-p1udm6771) Units=km Length=0.00995258 bus1=p1udm6771.1.2 bus2=p1udm6769.1.2 switch=n enabled=y phases=2 Linecode=1P_UG_AL_1/0_Brenau_2

New Line.l(r:p1udm6771-p1udt1865lv) Units=km Length=0.0099426 bus1=p1udt1865lv.1.2 bus2=p1udm6771.1.2 switch=n enabled=y phases=2 Linecode=1P_UG_AL_4/0_Sweetbriar_2

New Line.l(r:p1udt1866lv-p1ulv1958) Units=km Length=0.0153495 bus1=p1udt1866lv.1.2 bus2=p1ulv1958.1.2 switch=n enabled=y phases=2 Linecode=1P_UG_AL_1/0_Brenau_2

New Line.l(r:p1udm6774-p1ulv15713) Units=km Length=0.016749700000000003 bus1=p1udm6774.1.2 bus2=p1ulv15713.1.2 switch=n enabled=y phases=2 Linecode=1P_UG_AL_1/0_Brenau_2

New Line.l(r:p1udm6777-p1ulv55599) Units=km Length=0.0144718 bus1=p1udm6777.1.2 bus2=p1ulv55599.1.2 switch=n enabled=y phases=2 Linecode=1P_UG_AL_1/0_Brenau_2

New Line.l(r:p1udm6774-p1udm6777) Units=km Length=0.0835756 bus1=p1udm6774.1.2 bus2=p1udm6777.1.2 switch=n enabled=y phases=2 Linecode=1P_UG_AL_1/0_Brenau_2

New Line.l(r:p1udm6774-p1udt1866lv) Units=km Length=0.009160270000000002 bus1=p1udt1866lv.1.2 bus2=p1udm6774.1.2 switch=n enabled=y phases=2 Linecode=1P_UG_AL_4/0_Sweetbriar_2

New Line.l(r:p1udm6778-p1ulv60432) Units=km Length=0.0164254 bus1=p1udm6778.1.2 bus2=p1ulv60432.1.2 switch=n enabled=y phases=2 Linecode=1P_UG_AL_1/0_Brenau_2

New Line.l(r:p1udm6776-p1ulv41775) Units=km Length=0.0158636 bus1=p1udm6776.1.2 bus2=p1ulv41775.1.2 switch=n enabled=y phases=2 Linecode=1P_UG_AL_1/0_Brenau_2

New Line.l(r:p1udm6775-p1ulv23431) Units=km Length=0.0153711 bus1=p1udm6775.1.2 bus2=p1ulv23431.1.2 switch=n enabled=y phases=2 Linecode=1P_UG_AL_1/0_Brenau_2

New Line.l(r:p1udm6775-p1udm6776) Units=km Length=0.00962863 bus1=p1udm6776.1.2 bus2=p1udm6775.1.2 switch=n enabled=y phases=2 Linecode=1P_UG_AL_1/0_Brenau_2

New Line.l(r:p1udm6776-p1udm6778) Units=km Length=0.0239927 bus1=p1udm6778.1.2 bus2=p1udm6776.1.2 switch=n enabled=y phases=2 Linecode=1P_UG_AL_4/0_Sweetbriar_2

New Line.l(r:p1udm6778-p1udt1866lv) Units=km Length=0.00718051 bus1=p1udt1866lv.1.2 bus2=p1udm6778.1.2 switch=n enabled=y phases=2 Linecode=1P_UG_AL_4/0_Sweetbriar_2

New Line.l(r:p1udt1867lv-p1ulv1959) Units=km Length=0.0344507 bus1=p1udt1867lv.1.2 bus2=p1ulv1959.1.2 switch=n enabled=y phases=2 Linecode=1P_UG_AL_1/0_Brenau_2

New Line.l(r:p1udt1867lv-p1ulv24104) Units=km Length=0.028048900000000005 bus1=p1udt1867lv.1.2 bus2=p1ulv24104.1.2 switch=n enabled=y phases=2 Linecode=1P_UG_AL_1/0_Brenau_2

New Line.l(r:p1udt1867lv-p1ulv29751) Units=km Length=0.0281839 bus1=p1udt1867lv.1.2 bus2=p1ulv29751.1.2 switch=n enabled=y phases=2 Linecode=1P_UG_AL_1/0_Brenau_2

New Line.l(r:p1udt1867lv-p1ulv48108) Units=km Length=0.0247366 bus1=p1udt1867lv.1.2 bus2=p1ulv48108.1.2 switch=n enabled=y phases=2 Linecode=1P_UG_AL_1/0_Brenau_2

New Line.l(r:p1udt1867lv-p1ulv54994) Units=km Length=0.0284702 bus1=p1udt1867lv.1.2 bus2=p1ulv54994.1.2 switch=n enabled=y phases=2 Linecode=1P_UG_AL_1/0_Brenau_2

New Line.l(r:p1udt1871lv-p1ulv1963) Units=km Length=0.0696341 bus1=p1udt1871lv.1.2 bus2=p1ulv1963.1.2 switch=n enabled=y phases=2 Linecode=1P_OH_AL_4/0_Zuzara_2

New Line.l(r:p1udt2417lv-p1ulv3862) Units=km Length=0.0140035 bus1=p1udt2417lv.1.2 bus2=p1ulv3862.1.2 switch=n enabled=y phases=2 Linecode=1P_UG_AL_1/0_Brenau_2

New Line.l(r:p1udm8714-p1ulv2558) Units=km Length=0.0190383 bus1=p1udm8714.1.2 bus2=p1ulv2558.1.2 switch=n enabled=y phases=2 Linecode=1P_UG_AL_1/0_Brenau_2

New Line.l(r:p1udm8714-p1udt2417lv) Units=km Length=0.00810062 bus1=p1udt2417lv.1.2 bus2=p1udm8714.1.2 switch=n enabled=y phases=2 Linecode=1P_UG_AL_1/0_Brenau_2

New Line.l(r:p1udm8716-p1ulv22771) Units=km Length=0.022333500000000003 bus1=p1udm8716.1.2 bus2=p1ulv22771.1.2 switch=n enabled=y phases=2 Linecode=1P_UG_AL_1/0_Brenau_2

New Line.l(r:p1udm8716-p1udt2417lv) Units=km Length=0.016703 bus1=p1udt2417lv.1.2 bus2=p1udm8716.1.2 switch=n enabled=y phases=2 Linecode=1P_UG_AL_1/0_Brenau_2

New Line.l(r:p1udt2418lv-p1ulv2559) Units=km Length=0.0160385 bus1=p1udt2418lv.1.2 bus2=p1ulv2559.1.2 switch=n enabled=y phases=2 Linecode=1P_UG_AL_1/0_Brenau_2

New Line.l(r:p1udt2418lv-p1ulv5720) Units=km Length=0.0338669 bus1=p1udt2418lv.1.2 bus2=p1ulv5720.1.2 switch=n enabled=y phases=2 Linecode=1P_UG_AL_1/0_Brenau_2

New Line.l(r:p1udm8720-p1ulv28532) Units=km Length=0.0140065 bus1=p1udm8720.1.2 bus2=p1ulv28532.1.2 switch=n enabled=y phases=2 Linecode=1P_UG_AL_1/0_Brenau_2

New Line.l(r:p1udm8720-p1udt2418lv) Units=km Length=0.00994264 bus1=p1udt2418lv.1.2 bus2=p1udm8720.1.2 switch=n enabled=y phases=2 Linecode=1P_UG_AL_1/0_Brenau_2

New Line.l(r:p1udm8721-p1ulv39915) Units=km Length=0.0142899 bus1=p1udm8721.1.2 bus2=p1ulv39915.1.2 switch=n enabled=y phases=2 Linecode=1P_UG_AL_1/0_Brenau_2

New Line.l(r:p1udm8719-p1ulv8239) Units=km Length=0.0164375 bus1=p1udm8719.1.2 bus2=p1ulv8239.1.2 switch=n enabled=y phases=2 Linecode=1P_UG_AL_1/0_Brenau_2

New Line.l(r:p1udm8719-p1udm8721) Units=km Length=0.00994264 bus1=p1udm8721.1.2 bus2=p1udm8719.1.2 switch=n enabled=y phases=2 Linecode=1P_UG_AL_1/0_Brenau_2

New Line.l(r:p1udm8721-p1udt2418lv) Units=km Length=0.00995133 bus1=p1udt2418lv.1.2 bus2=p1udm8721.1.2 switch=n enabled=y phases=2 Linecode=1P_UG_AL_4/0_Sweetbriar_2

New Line.l(r:p1udt2419lv-p1ulv25959) Units=km Length=0.015275 bus1=p1udt2419lv.1.2 bus2=p1ulv25959.1.2 switch=n enabled=y phases=2 Linecode=1P_UG_AL_1/0_Brenau_2

New Line.l(r:p1udm8722-p1ulv2560) Units=km Length=0.015824 bus1=p1udm8722.1.2 bus2=p1ulv2560.1.2 switch=n enabled=y phases=2 Linecode=1P_UG_AL_1/0_Brenau_2

New Line.l(r:p1udm8722-p1ulv36765) Units=km Length=0.0161808 bus1=p1udm8722.1.2 bus2=p1ulv36765.1.2 switch=n enabled=y phases=2 Linecode=1P_UG_AL_1/0_Brenau_2

New Line.l(r:p1udm8722-p1udt2419lv) Units=km Length=0.00969538 bus1=p1udt2419lv.1.2 bus2=p1udm8722.1.2 switch=n enabled=y phases=2 Linecode=1P_UG_AL_4/0_Sweetbriar_2

New Line.l(r:p1udm8723-p1ulv20234) Units=km Length=0.015802 bus1=p1udm8723.1.2 bus2=p1ulv20234.1.2 switch=n enabled=y phases=2 Linecode=1P_UG_AL_1/0_Brenau_2

New Line.l(r:p1udm8723-p1ulv54331) Units=km Length=0.0150211 bus1=p1udm8723.1.2 bus2=p1ulv54331.1.2 switch=n enabled=y phases=2 Linecode=1P_UG_AL_1/0_Brenau_2

New Line.l(r:p1udm8723-p1udt2419lv) Units=km Length=0.0193723 bus1=p1udt2419lv.1.2 bus2=p1udm8723.1.2 switch=n enabled=y phases=2 Linecode=1P_UG_AL_4/0_Sweetbriar_2

New Line.l(r:p1udt2420lv-p1ulv2561) Units=km Length=0.0142247 bus1=p1udt2420lv.1.2 bus2=p1ulv2561.1.2 switch=n enabled=y phases=2 Linecode=1P_UG_AL_1/0_Brenau_2

New Line.l(r:p1udt2420lv-p1ulv63560) Units=km Length=0.0159541 bus1=p1udt2420lv.1.2 bus2=p1ulv63560.1.2 switch=n enabled=y phases=2 Linecode=1P_UG_AL_1/0_Brenau_2

New Line.l(r:p1udm8728-p1ulv20884) Units=km Length=0.0185207 bus1=p1udm8728.1.2 bus2=p1ulv20884.1.2 switch=n enabled=y phases=2 Linecode=1P_UG_AL_2/0_Converse_2

New Line.l(r:p1udm8728-p1ulv50545) Units=km Length=0.016087 bus1=p1udm8728.1.2 bus2=p1ulv50545.1.2 switch=n enabled=y phases=2 Linecode=1P_UG_AL_1/0_Brenau_2

New Line.l(r:p1udm8728-p1udt2420lv) Units=km Length=0.0226911 bus1=p1udt2420lv.1.2 bus2=p1udm8728.1.2 switch=n enabled=y phases=2 Linecode=1P_UG_AL_4/0_Sweetbriar_2

New Line.l(r:p1udm8731-p1ulv64828) Units=km Length=0.012309 bus1=p1udm8731.1.2 bus2=p1ulv64828.1.2 switch=n enabled=y phases=2 Linecode=1P_UG_AL_1/0_Brenau_2

New Line.l(r:p1udm8731-p1udt2420lv) Units=km Length=0.0793108 bus1=p1udt2420lv.1.2 bus2=p1udm8731.1.2 switch=n enabled=y phases=2 Linecode=1P_UG_AL_1/0_Brenau_2

New Line.l(r:p1udt2421lv-p1ulv2562) Units=km Length=0.0165017 bus1=p1udt2421lv.1.2 bus2=p1ulv2562.1.2 switch=n enabled=y phases=2 Linecode=1P_UG_AL_1/0_Brenau_2

New Line.l(r:p1udm8733-p1ulv18284) Units=km Length=0.0180609 bus1=p1udm8733.1.2 bus2=p1ulv18284.1.2 switch=n enabled=y phases=2 Linecode=1P_UG_AL_1/0_Brenau_2

New Line.l(r:p1udm8733-p1ulv63559) Units=km Length=0.0152909 bus1=p1udm8733.1.2 bus2=p1ulv63559.1.2 switch=n enabled=y phases=2 Linecode=1P_UG_AL_1/0_Brenau_2

New Line.l(r:p1udm8733-p1udt2421lv) Units=km Length=0.00954386 bus1=p1udt2421lv.1.2 bus2=p1udm8733.1.2 switch=n enabled=y phases=2 Linecode=1P_UG_AL_4/0_Sweetbriar_2

New Line.l(r:p1udm8735-p1ulv2563) Units=km Length=0.0147309 bus1=p1udm8735.1.2 bus2=p1ulv2563.1.2 switch=n enabled=y phases=2 Linecode=1P_UG_AL_1/0_Brenau_2

New Line.l(r:p1udm8735-p1ulv34252) Units=km Length=0.0158028 bus1=p1udm8735.1.2 bus2=p1ulv34252.1.2 switch=n enabled=y phases=2 Linecode=1P_UG_AL_1/0_Brenau_2

New Line.l(r:p1udm8735-p1udt2422lv) Units=km Length=0.018725 bus1=p1udt2422lv.1.2 bus2=p1udm8735.1.2 switch=n enabled=y phases=2 Linecode=1P_UG_AL_4/0_Sweetbriar_2

New Line.l(r:p1udm8736-p1ulv27893) Units=km Length=0.017354100000000004 bus1=p1udm8736.1.2 bus2=p1ulv27893.1.2 switch=n enabled=y phases=2 Linecode=1P_UG_AL_1/0_Brenau_2

New Line.l(r:p1udm8736-p1udt2422lv) Units=km Length=0.0374365 bus1=p1udt2422lv.1.2 bus2=p1udm8736.1.2 switch=n enabled=y phases=2 Linecode=1P_UG_AL_1/0_Brenau_2

New Line.l(r:p1udm8738-p1ulv2564) Units=km Length=0.0121671 bus1=p1udm8738.1.2 bus2=p1ulv2564.1.2 switch=n enabled=y phases=2 Linecode=1P_UG_AL_1/0_Brenau_2

New Line.l(r:p1udm8738-p1udt2423lv) Units=km Length=0.00765598 bus1=p1udt2423lv.1.2 bus2=p1udm8738.1.2 switch=n enabled=y phases=2 Linecode=1P_UG_AL_1/0_Brenau_2

New Line.l(r:p1udm8739-p1ulv38651) Units=km Length=0.0138692 bus1=p1udm8739.1.2 bus2=p1ulv38651.1.2 switch=n enabled=y phases=2 Linecode=1P_UG_AL_1/0_Brenau_2

New Line.l(r:p1udm8739-p1udt2423lv) Units=km Length=0.00752498 bus1=p1udt2423lv.1.2 bus2=p1udm8739.1.2 switch=n enabled=y phases=2 Linecode=1P_UG_AL_1/0_Brenau_2

New Line.l(r:p1udm8754-p1ulv2572) Units=km Length=0.016295 bus1=p1udm8754.1.2 bus2=p1ulv2572.1.2 switch=n enabled=y phases=2 Linecode=1P_UG_AL_1/0_Brenau_2

New Line.l(r:p1udm8754-p1udt2430lv) Units=km Length=0.0295077 bus1=p1udt2430lv.1.2 bus2=p1udm8754.1.2 switch=n enabled=y phases=2 Linecode=1P_UG_AL_1/0_Brenau_2

New Line.l(r:p1udm8755-p1ulv17026) Units=km Length=0.016026 bus1=p1udm8755.1.2 bus2=p1ulv17026.1.2 switch=n enabled=y phases=2 Linecode=1P_UG_AL_1/0_Brenau_2

New Line.l(r:p1udm8755-p1ulv42416) Units=km Length=0.0170065 bus1=p1udm8755.1.2 bus2=p1ulv42416.1.2 switch=n enabled=y phases=2 Linecode=1P_UG_AL_1/0_Brenau_2

New Line.l(r:p1udm8755-p1udt2430lv) Units=km Length=0.0185593 bus1=p1udt2430lv.1.2 bus2=p1udm8755.1.2 switch=n enabled=y phases=2 Linecode=1P_UG_AL_4/0_Sweetbriar_2

New Line.l(r:p1udm8757-p1ulv2573) Units=km Length=0.0172636 bus1=p1udm8757.1.2 bus2=p1ulv2573.1.2 switch=n enabled=y phases=2 Linecode=1P_UG_AL_1/0_Brenau_2

New Line.l(r:p1udm8759-p1ulv56177) Units=km Length=0.0184924 bus1=p1udm8759.1.2 bus2=p1ulv56177.1.2 switch=n enabled=y phases=2 Linecode=1P_UG_AL_1/0_Brenau_2

New Line.l(r:p1udm8757-p1udm8759) Units=km Length=0.00974122 bus1=p1udm8757.1.2 bus2=p1udm8759.1.2 switch=n enabled=y phases=2 Linecode=1P_UG_AL_1/0_Brenau_2

New Line.l(r:p1udm8757-p1udt2431lv) Units=km Length=0.00974122 bus1=p1udt2431lv.1.2 bus2=p1udm8757.1.2 switch=n enabled=y phases=2 Linecode=1P_UG_AL_4/0_Sweetbriar_2

New Line.l(r:p1udm8758-p1ulv38028) Units=km Length=0.0181967 bus1=p1udm8758.1.2 bus2=p1ulv38028.1.2 switch=n enabled=y phases=2 Linecode=1P_UG_AL_1/0_Brenau_2

New Line.l(r:p1udm8758-p1udt2431lv) Units=km Length=0.0190425 bus1=p1udt2431lv.1.2 bus2=p1udm8758.1.2 switch=n enabled=y phases=2 Linecode=1P_UG_AL_1/0_Brenau_2

New Line.l(r:p1udm8760-p1ulv2574) Units=km Length=0.0123186 bus1=p1udm8760.1.2 bus2=p1ulv2574.1.2 switch=n enabled=y phases=2 Linecode=1P_UG_AL_1/0_Brenau_2

New Line.l(r:p1udm8760-p1ulv6392) Units=km Length=0.02753 bus1=p1udm8760.1.2 bus2=p1ulv6392.1.2 switch=n enabled=y phases=2 Linecode=1P_UG_AL_1/0_Brenau_2

New Line.l(r:p1udm8760-p1ulv50552) Units=km Length=0.0131315 bus1=p1udm8760.1.2 bus2=p1ulv50552.1.2 switch=n enabled=y phases=2 Linecode=1P_UG_AL_1/0_Brenau_2

New Line.l(r:p1udm8760-p1udt2432lv) Units=km Length=0.00986657 bus1=p1udt2432lv.1.2 bus2=p1udm8760.1.2 switch=n enabled=y phases=2 Linecode=1P_UG_AL_4/0_Sweetbriar_2

New Line.l(r:p1udm8762-p1ulv9517) Units=km Length=0.0110135 bus1=p1udm8762.1.2 bus2=p1ulv9517.1.2 switch=n enabled=y phases=2 Linecode=1P_UG_AL_1/0_Brenau_2

New Line.l(r:p1udm8762-p1ulv53081) Units=km Length=0.019305300000000004 bus1=p1udm8762.1.2 bus2=p1ulv53081.1.2 switch=n enabled=y phases=2 Linecode=1P_UG_AL_1/0_Brenau_2

New Line.l(r:p1udm8762-p1udt2432lv) Units=km Length=0.0197463 bus1=p1udt2432lv.1.2 bus2=p1udm8762.1.2 switch=n enabled=y phases=2 Linecode=1P_UG_AL_4/0_Sweetbriar_2

New Line.l(r:p1udm8765-p1ulv2575) Units=km Length=0.013383 bus1=p1udm8765.1.2 bus2=p1ulv2575.1.2 switch=n enabled=y phases=2 Linecode=1P_UG_AL_1/0_Brenau_2

New Line.l(r:p1udm8765-p1udt2433lv) Units=km Length=0.0192814 bus1=p1udt2433lv.1.2 bus2=p1udm8765.1.2 switch=n enabled=y phases=2 Linecode=1P_UG_AL_1/0_Brenau_2

New Line.l(r:p1udm8766-p1ulv18979) Units=km Length=0.0151736 bus1=p1udm8766.1.2 bus2=p1ulv18979.1.2 switch=n enabled=y phases=2 Linecode=1P_UG_AL_2/0_Converse_2

New Line.l(r:p1udm8766-p1ulv51169) Units=km Length=0.0171856 bus1=p1udm8766.1.2 bus2=p1ulv51169.1.2 switch=n enabled=y phases=2 Linecode=1P_UG_AL_1/0_Brenau_2

New Line.l(r:p1udm8766-p1udt2433lv) Units=km Length=0.00964025 bus1=p1udt2433lv.1.2 bus2=p1udm8766.1.2 switch=n enabled=y phases=2 Linecode=1P_UG_AL_4/0_Sweetbriar_2

New Line.l(r:p1udt2434lv-p1ulv17653) Units=km Length=0.013206 bus1=p1udt2434lv.1.2 bus2=p1ulv17653.1.2 switch=n enabled=y phases=2 Linecode=1P_UG_AL_1/0_Brenau_2

New Line.l(r:p1udt2434lv-p1ulv27904) Units=km Length=0.0182683 bus1=p1udt2434lv.1.2 bus2=p1ulv27904.1.2 switch=n enabled=y phases=2 Linecode=1P_UG_AL_1/0_Brenau_2

New Line.l(r:p1udm8768-p1ulv2576) Units=km Length=0.0190048 bus1=p1udm8768.1.2 bus2=p1ulv2576.1.2 switch=n enabled=y phases=2 Linecode=1P_UG_AL_1/0_Brenau_2

New Line.l(r:p1udm8768-p1udt2434lv) Units=km Length=0.00974559 bus1=p1udt2434lv.1.2 bus2=p1udm8768.1.2 switch=n enabled=y phases=2 Linecode=1P_UG_AL_1/0_Brenau_2

New Line.l(r:p1udt2435lv-p1ulv11997) Units=km Length=0.0235736 bus1=p1udt2435lv.1.2 bus2=p1ulv11997.1.2 switch=n enabled=y phases=2 Linecode=1P_UG_AL_1/0_Brenau_2

New Line.l(r:p1udm8771-p1ulv2577) Units=km Length=0.0152041 bus1=p1udm8771.1.2 bus2=p1ulv2577.1.2 switch=n enabled=y phases=2 Linecode=1P_UG_AL_1/0_Brenau_2

New Line.l(r:p1udm8771-p1ulv38663) Units=km Length=0.0204377 bus1=p1udm8771.1.2 bus2=p1ulv38663.1.2 switch=n enabled=y phases=2 Linecode=1P_UG_AL_1/0_Brenau_2

New Line.l(r:p1udm8771-p1udt2435lv) Units=km Length=0.0196545 bus1=p1udt2435lv.1.2 bus2=p1udm8771.1.2 switch=n enabled=y phases=2 Linecode=1P_UG_AL_4/0_Sweetbriar_2

New Line.l(r:p1udm8773-p1ulv15714) Units=km Length=0.0205368 bus1=p1udm8773.1.2 bus2=p1ulv15714.1.2 switch=n enabled=y phases=2 Linecode=1P_UG_AL_1/0_Brenau_2

New Line.l(r:p1udm8773-p1ulv26603) Units=km Length=0.0163905 bus1=p1udm8773.1.2 bus2=p1ulv26603.1.2 switch=n enabled=y phases=2 Linecode=1P_UG_AL_1/0_Brenau_2

New Line.l(r:p1udm8773-p1udt2435lv) Units=km Length=0.00983163 bus1=p1udt2435lv.1.2 bus2=p1udm8773.1.2 switch=n enabled=y phases=2 Linecode=1P_UG_AL_4/0_Sweetbriar_2

New Line.l(r:p1udt3019lv-p1ulv44966) Units=km Length=0.0208082 bus1=p1udt3019lv.1.2 bus2=p1ulv44966.1.2 switch=n enabled=y phases=2 Linecode=1P_UG_AL_1/0_Brenau_2

New Line.l(r:p1udm10716-p1ulv3863) Units=km Length=0.015188100000000001 bus1=p1udm10716.1.2 bus2=p1ulv3863.1.2 switch=n enabled=y phases=2 Linecode=1P_UG_AL_1/0_Brenau_2

New Line.l(r:p1udm10715-p1ulv3227) Units=km Length=0.017368 bus1=p1udm10715.1.2 bus2=p1ulv3227.1.2 switch=n enabled=y phases=2 Linecode=1P_UG_AL_1/0_Brenau_2

New Line.l(r:p1udm10715-p1udm10716) Units=km Length=0.0151801 bus1=p1udm10716.1.2 bus2=p1udm10715.1.2 switch=n enabled=y phases=2 Linecode=1P_UG_AL_1/0_Brenau_2

New Line.l(r:p1udm10716-p1udt3019lv) Units=km Length=0.006903050000000001 bus1=p1udt3019lv.1.2 bus2=p1udm10716.1.2 switch=n enabled=y phases=2 Linecode=1P_UG_AL_4/0_Sweetbriar_2

New Line.l(r:p1udm10719-p1ulv51155) Units=km Length=0.015099000000000001 bus1=p1udm10719.1.2 bus2=p1ulv51155.1.2 switch=n enabled=y phases=2 Linecode=1P_UG_AL_1/0_Brenau_2

New Line.l(r:p1udm10717-p1ulv7642) Units=km Length=0.0155059 bus1=p1udm10717.1.2 bus2=p1ulv7642.1.2 switch=n enabled=y phases=2 Linecode=1P_UG_AL_1/0_Brenau_2

New Line.l(r:p1udm10717-p1udm10719) Units=km Length=0.006903050000000001 bus1=p1udm10719.1.2 bus2=p1udm10717.1.2 switch=n enabled=y phases=2 Linecode=1P_UG_AL_1/0_Brenau_2

New Line.l(r:p1udm10719-p1udt3019lv) Units=km Length=0.0069016 bus1=p1udt3019lv.1.2 bus2=p1udm10719.1.2 switch=n enabled=y phases=2 Linecode=1P_UG_AL_4/0_Sweetbriar_2

New Line.l(r:p1udt3020lv-p1ulv3228) Units=km Length=0.0183605 bus1=p1udt3020lv.1.2 bus2=p1ulv3228.1.2 switch=n enabled=y phases=2 Linecode=1P_UG_AL_1/0_Brenau_2

New Line.l(r:p1udt3020lv-p1ulv53735) Units=km Length=0.0159487 bus1=p1udt3020lv.1.2 bus2=p1ulv53735.1.2 switch=n enabled=y phases=2 Linecode=1P_UG_AL_1/0_Brenau_2

New Line.l(r:p1udm10721-p1ulv39917) Units=km Length=0.017446900000000005 bus1=p1udm10721.1.2 bus2=p1ulv39917.1.2 switch=n enabled=y phases=2 Linecode=1P_UG_AL_1/0_Brenau_2

New Line.l(r:p1udm10721-p1udt3020lv) Units=km Length=0.00995978 bus1=p1udt3020lv.1.2 bus2=p1udm10721.1.2 switch=n enabled=y phases=2 Linecode=1P_UG_AL_1/0_Brenau_2

New Line.l(r:p1udt3022lv-p1ulv3230) Units=km Length=0.0269281 bus1=p1udt3022lv.1.2 bus2=p1ulv3230.1.2 switch=n enabled=y phases=2 Linecode=1P_UG_AL_1/0_Brenau_2

New Line.l(r:p1udt3022lv-p1ulv7644) Units=km Length=0.0246849 bus1=p1udt3022lv.1.2 bus2=p1ulv7644.1.2 switch=n enabled=y phases=2 Linecode=1P_UG_AL_1/0_Brenau_2

New Line.l(r:p1udt3022lv-p1ulv45607) Units=km Length=0.0372923 bus1=p1udt3022lv.1.2 bus2=p1ulv45607.1.2 switch=n enabled=y phases=2 Linecode=1P_UG_AL_1/0_Brenau_2

New Line.l(r:p1udt3022lv-p1ulv62943) Units=km Length=0.0280187 bus1=p1udt3022lv.1.2 bus2=p1ulv62943.1.2 switch=n enabled=y phases=2 Linecode=1P_UG_AL_1/0_Brenau_2

New Line.l(r:p1udm10729-p1ulv60420) Units=km Length=0.0270421 bus1=p1udm10729.1.2 bus2=p1ulv60420.1.2 switch=n enabled=y phases=2 Linecode=1P_UG_AL_1/0_Brenau_2

New Line.l(r:p1udm10729-p1udt3022lv) Units=km Length=0.0085489 bus1=p1udt3022lv.1.2 bus2=p1udm10729.1.2 switch=n enabled=y phases=2 Linecode=1P_UG_AL_1/0_Brenau_2

New Line.l(r:p1udm10736-p1ulv10107) Units=km Length=0.0179629 bus1=p1udm10736.1.2 bus2=p1ulv10107.1.2 switch=n enabled=y phases=2 Linecode=1P_UG_AL_1/0_Brenau_2

New Line.l(r:p1udm10735-p1ulv3233) Units=km Length=0.0146838 bus1=p1udm10735.1.2 bus2=p1ulv3233.1.2 switch=n enabled=y phases=2 Linecode=1P_UG_AL_1/0_Brenau_2

New Line.l(r:p1udm10735-p1ulv13226) Units=km Length=0.04179120000000001 bus1=p1udm10735.1.2 bus2=p1ulv13226.1.2 switch=n enabled=y phases=2 Linecode=1P_UG_AL_1/0_Brenau_2

New Line.l(r:p1udm10735-p1udm10736) Units=km Length=0.0076129 bus1=p1udm10736.1.2 bus2=p1udm10735.1.2 switch=n enabled=y phases=2 Linecode=1P_UG_AL_4/0_Sweetbriar_2

New Line.l(r:p1udm10736-p1udt3024lv) Units=km Length=0.0076221 bus1=p1udt3024lv.1.2 bus2=p1udm10736.1.2 switch=n enabled=y phases=2 Linecode=1P_UG_AL_4/0_Sweetbriar_2

New Line.l(r:p1udm10738-p1ulv13861) Units=km Length=0.019806400000000002 bus1=p1udm10738.1.2 bus2=p1ulv13861.1.2 switch=n enabled=y phases=2 Linecode=1P_UG_AL_1/0_Brenau_2

New Line.l(r:p1udm10738-p1ulv22778) Units=km Length=0.016851 bus1=p1udm10738.1.2 bus2=p1ulv22778.1.2 switch=n enabled=y phases=2 Linecode=1P_UG_AL_1/0_Brenau_2

New Line.l(r:p1udm10738-p1udt3024lv) Units=km Length=0.00761213 bus1=p1udt3024lv.1.2 bus2=p1udm10738.1.2 switch=n enabled=y phases=2 Linecode=1P_UG_AL_4/0_Sweetbriar_2

New Line.l(r:p1udt3031lv-p1ulv27268) Units=km Length=0.0382767 bus1=p1udt3031lv.1.2 bus2=p1ulv27268.1.2 switch=n enabled=y phases=2 Linecode=1P_OH_AL_4/0_Zuzara_2

New Line.l(r:p1udm10760-p1ulv3241) Units=km Length=0.0291407 bus1=p1udm10760.1.2 bus2=p1ulv3241.1.2 switch=n enabled=y phases=2 Linecode=1P_OH_AL_4/0_Zuzara_2

New Line.l(r:p1udm10760-p1udt3031lv) Units=km Length=0.0328286 bus1=p1udt3031lv.1.2 bus2=p1udm10760.1.2 switch=n enabled=y phases=2 Linecode=1P_OH_AL_4/0_Zuzara_2

New Line.l(r:p1udm10761-p1ulv7651) Units=km Length=0.0524281 bus1=p1udm10761.1.2 bus2=p1ulv7651.1.2 switch=n enabled=y phases=2 Linecode=1P_OH_AL_4/0_Zuzara_2

New Line.l(r:p1udm10761-p1udt3031lv) Units=km Length=0.0191655 bus1=p1udt3031lv.1.2 bus2=p1udm10761.1.2 switch=n enabled=y phases=2 Linecode=1P_OH_AL_2/0_Rucina_2

New Line.l(r:p1udt3032lv-p1ulv3242) Units=km Length=0.0146441 bus1=p1udt3032lv.1.2 bus2=p1ulv3242.1.2 switch=n enabled=y phases=2 Linecode=1P_UG_AL_1/0_Brenau_2

New Line.l(r:p1udm10764-p1ulv25971) Units=km Length=0.0178628 bus1=p1udm10764.1.2 bus2=p1ulv25971.1.2 switch=n enabled=y phases=2 Linecode=1P_UG_AL_1/0_Brenau_2

New Line.l(r:p1udm10766-p1ulv57408) Units=km Length=0.0246207 bus1=p1udm10766.1.2 bus2=p1ulv57408.1.2 switch=n enabled=y phases=2 Linecode=1P_UG_AL_1/0_Brenau_2

New Line.l(r:p1udm10764-p1udm10766) Units=km Length=0.00931885 bus1=p1udm10764.1.2 bus2=p1udm10766.1.2 switch=n enabled=y phases=2 Linecode=1P_UG_AL_1/0_Brenau_2

New Line.l(r:p1udm10764-p1udt3032lv) Units=km Length=0.00681883 bus1=p1udt3032lv.1.2 bus2=p1udm10764.1.2 switch=n enabled=y phases=2 Linecode=1P_UG_AL_4/0_Sweetbriar_2

New Line.l(r:p1udm10765-p1ulv43021) Units=km Length=0.014414700000000003 bus1=p1udm10765.1.2 bus2=p1ulv43021.1.2 switch=n enabled=y phases=2 Linecode=1P_UG_AL_1/0_Brenau_2

New Line.l(r:p1udm10765-p1udt3032lv) Units=km Length=0.0301742 bus1=p1udt3032lv.1.2 bus2=p1udm10765.1.2 switch=n enabled=y phases=2 Linecode=1P_UG_AL_1/0_Brenau_2

New Line.l(r:p1udt3033lv-p1ulv3243) Units=km Length=0.022251100000000003 bus1=p1udt3033lv.1.2 bus2=p1ulv3243.1.2 switch=n enabled=y phases=2 Linecode=1P_UG_AL_1/0_Brenau_2

New Line.l(r:p1udt3033lv-p1ulv24098) Units=km Length=0.0296252 bus1=p1udt3033lv.1.2 bus2=p1ulv24098.1.2 switch=n enabled=y phases=2 Linecode=1P_UG_AL_1/0_Brenau_2

New Line.l(r:p1udt3033lv-p1ulv58592) Units=km Length=0.020167 bus1=p1udt3033lv.1.2 bus2=p1ulv58592.1.2 switch=n enabled=y phases=2 Linecode=1P_UG_AL_1/0_Brenau_2

New Line.l(r:p1udm10769-p1ulv27902) Units=km Length=0.0187128 bus1=p1udm10769.1.2 bus2=p1ulv27902.1.2 switch=n enabled=y phases=2 Linecode=1P_UG_AL_1/0_Brenau_2

New Line.l(r:p1udm10769-p1ulv63572) Units=km Length=0.0220542 bus1=p1udm10769.1.2 bus2=p1ulv63572.1.2 switch=n enabled=y phases=2 Linecode=1P_UG_AL_1/0_Brenau_2

New Line.l(r:p1udm10769-p1udt3033lv) Units=km Length=0.0190916 bus1=p1udt3033lv.1.2 bus2=p1udm10769.1.2 switch=n enabled=y phases=2 Linecode=1P_UG_AL_4/0_Sweetbriar_2

New Line.l(r:p1udm10772-p1ulv3244) Units=km Length=0.0138931 bus1=p1udm10772.1.2 bus2=p1ulv3244.1.2 switch=n enabled=y phases=2 Linecode=1P_UG_AL_1/0_Brenau_2

New Line.l(r:p1udm10776-p1ulv51167) Units=km Length=0.0205926 bus1=p1udm10776.1.2 bus2=p1ulv51167.1.2 switch=n enabled=y phases=2 Linecode=1P_UG_AL_1/0_Brenau_2

New Line.l(r:p1udm10775-p1ulv32285) Units=km Length=0.00903402 bus1=p1udm10775.1.2 bus2=p1ulv32285.1.2 switch=n enabled=y phases=2 Linecode=1P_UG_AL_1/0_Brenau_2

New Line.l(r:p1udm10775-p1udm10776) Units=km Length=0.0612374 bus1=p1udm10776.1.2 bus2=p1udm10775.1.2 switch=n enabled=y phases=2 Linecode=1P_UG_AL_1/0_Brenau_2

New Line.l(r:p1udm10772-p1udm10776) Units=km Length=0.009918410000000003 bus1=p1udm10772.1.2 bus2=p1udm10776.1.2 switch=n enabled=y phases=2 Linecode=1P_UG_AL_4/0_Sweetbriar_2

New Line.l(r:p1udm10772-p1udt3034lv) Units=km Length=0.00991005 bus1=p1udt3034lv.1.2 bus2=p1udm10772.1.2 switch=n enabled=y phases=2 Linecode=1P_UG_AL_4/0_Sweetbriar_2

New Line.l(r:p1udm10777-p1ulv54345) Units=km Length=0.0141374 bus1=p1udm10777.1.2 bus2=p1ulv54345.1.2 switch=n enabled=y phases=2 Linecode=1P_UG_AL_1/0_Brenau_2

New Line.l(r:p1udm10774-p1ulv25972) Units=km Length=0.0169777 bus1=p1udm10774.1.2 bus2=p1ulv25972.1.2 switch=n enabled=y phases=2 Linecode=1P_UG_AL_1/0_Brenau_2

New Line.l(r:p1udm10773-p1ulv13239) Units=km Length=0.0130727 bus1=p1udm10773.1.2 bus2=p1ulv13239.1.2 switch=n enabled=y phases=2 Linecode=1P_UG_AL_1/0_Brenau_2

New Line.l(r:p1udm10773-p1udm10774) Units=km Length=0.009918410000000003 bus1=p1udm10774.1.2 bus2=p1udm10773.1.2 switch=n enabled=y phases=2 Linecode=1P_UG_AL_1/0_Brenau_2

New Line.l(r:p1udm10774-p1udm10777) Units=km Length=0.00991005 bus1=p1udm10777.1.2 bus2=p1udm10774.1.2 switch=n enabled=y phases=2 Linecode=1P_UG_AL_4/0_Sweetbriar_2

New Line.l(r:p1udm10777-p1udt3034lv) Units=km Length=0.00992389 bus1=p1udt3034lv.1.2 bus2=p1udm10777.1.2 switch=n enabled=y phases=2 Linecode=1P_UG_AL_4/0_Sweetbriar_2

New Line.l(r:p1udt3035lv-p1ulv3245) Units=km Length=0.0420448 bus1=p1udt3035lv.1.2 bus2=p1ulv3245.1.2 switch=n enabled=y phases=2 Linecode=1P_OH_AL_4/0_Zuzara_2

New Line.l(r:p1udm10779-p1ulv34880) Units=km Length=0.0096112 bus1=p1udm10779.1.2 bus2=p1ulv34880.1.2 switch=n enabled=y phases=2 Linecode=1P_OH_AL_2/0_Rucina_2

New Line.l(r:p1udm10779-p1udt3035lv) Units=km Length=0.013378900000000003 bus1=p1udt3035lv.1.2 bus2=p1udm10779.1.2 switch=n enabled=y phases=2 Linecode=1P_OH_AL_2/0_Rucina_2

New Line.l(r:p1udm10780-p1ulv44972) Units=km Length=0.0267207 bus1=p1udm10780.1.2 bus2=p1ulv44972.1.2 switch=n enabled=y phases=2 Linecode=1P_OH_AL_2/0_Rucina_2

New Line.l(r:p1udm10780-p1udt3035lv) Units=km Length=0.0075658800000000005 bus1=p1udt3035lv.1.2 bus2=p1udm10780.1.2 switch=n enabled=y phases=2 Linecode=1P_OH_AL_2/0_Rucina_2

New Line.l(r:p1udt3036lv-p1ulv3246) Units=km Length=0.0194764 bus1=p1udt3036lv.1.2 bus2=p1ulv3246.1.2 switch=n enabled=y phases=2 Linecode=1P_UG_AL_1/0_Brenau_2

New Line.l(r:p1udt3037lv-p1ulv4471) Units=km Length=0.0028398900000000003 bus1=p1udt3037lv.1.2 bus2=p1ulv4471.1.2 switch=n enabled=y phases=2 Linecode=1P_UG_AL_2/0_Converse_2

New Line.l(r:p1udm10782-p1ulv3247) Units=km Length=0.016514 bus1=p1udm10782.1.2 bus2=p1ulv3247.1.2 switch=n enabled=y phases=2 Linecode=1P_UG_AL_1/0_Brenau_2

New Line.l(r:p1udm10782-p1udt3037lv) Units=km Length=0.0173924 bus1=p1udt3037lv.1.2 bus2=p1udm10782.1.2 switch=n enabled=y phases=2 Linecode=1P_UG_AL_1/0_Brenau_2

New Line.l(r:p1udm10784-p1ulv7013) Units=km Length=0.0146426 bus1=p1udm10784.1.2 bus2=p1ulv7013.1.2 switch=n enabled=y phases=2 Linecode=1P_UG_AL_1/0_Brenau_2

New Line.l(r:p1udm10784-p1ulv42414) Units=km Length=0.00450076 bus1=p1udm10784.1.2 bus2=p1ulv42414.1.2 switch=n enabled=y phases=2 Linecode=1P_UG_AL_1/0_Brenau_2

New Line.l(r:p1udm10784-p1udt3037lv) Units=km Length=0.00877276 bus1=p1udt3037lv.1.2 bus2=p1udm10784.1.2 switch=n enabled=y phases=2 Linecode=1P_UG_AL_4/0_Sweetbriar_2

New Line.l(r:p1udt3038lv-p1ulv3248) Units=km Length=0.0398676 bus1=p1udt3038lv.1.2 bus2=p1ulv3248.1.2 switch=n enabled=y phases=2 Linecode=1P_OH_AL_4/0_Zuzara_2

New Line.l(r:p1udt3038lv-p1ulv49930) Units=km Length=0.0190506 bus1=p1udt3038lv.1.2 bus2=p1ulv49930.1.2 switch=n enabled=y phases=2 Linecode=1P_OH_AL_2/0_Rucina_2

New Line.l(r:p1udt3038lv-p1ulv54350) Units=km Length=0.0239982 bus1=p1udt3038lv.1.2 bus2=p1ulv54350.1.2 switch=n enabled=y phases=2 Linecode=1P_OH_AL_2/0_Rucina_2

New Line.l(r:p1udm10789-p1ulv3251) Units=km Length=0.0157824 bus1=p1udm10789.1.2 bus2=p1ulv3251.1.2 switch=n enabled=y phases=2 Linecode=1P_UG_AL_1/0_Brenau_2

New Line.l(r:p1udm10789-p1udt3039lv) Units=km Length=0.0590274 bus1=p1udt3039lv.1.2 bus2=p1udm10789.1.2 switch=n enabled=y phases=2 Linecode=1P_UG_AL_1/0_Brenau_2

New Line.l(r:p1udm10790-p1ulv41778) Units=km Length=0.0154447 bus1=p1udm10790.1.2 bus2=p1ulv41778.1.2 switch=n enabled=y phases=2 Linecode=1P_UG_AL_1/0_Brenau_2

New Line.l(r:p1udm10790-p1ulv64226) Units=km Length=0.0183532 bus1=p1udm10790.1.2 bus2=p1ulv64226.1.2 switch=n enabled=y phases=2 Linecode=1P_UG_AL_1/0_Brenau_2

New Line.l(r:p1udm10790-p1udt3039lv) Units=km Length=0.00983163 bus1=p1udt3039lv.1.2 bus2=p1udm10790.1.2 switch=n enabled=y phases=2 Linecode=1P_UG_AL_4/0_Sweetbriar_2

New Line.l(r:p1udt3581lv-p1ulv18283) Units=km Length=0.0152195 bus1=p1udt3581lv.1.2 bus2=p1ulv18283.1.2 switch=n enabled=y phases=2 Linecode=1P_UG_AL_1/0_Brenau_2

...